data_1
_audit_creation_method   'vasp2cif'
_cell_length_a    2.8759455767
_cell_length_b    2.8759455767
_cell_length_c    2.8759455767
_cell_angle_alpha    90.0
_cell_angle_beta    90.0
_cell_angle_gamma    90.0

_symmetry_space_group_name_H-M    'P 1'
loop_
_atom_site_label
_atom_site_type_symbol
_atom_site_fract_x
_atom_site_fract_y
_atom_site_fract_z
_atom_site_occupancy
Fe2   Fe   0.000000000000000   0.000000000000000   0.000000000000000   1.0000000
Fe2   Fe   0.500000000000000   0.500000000000000   0.500000000000000   1.0000000


